Version 4
SHEET 1 880 680
WIRE -400 128 -432 128
WIRE -256 128 -400 128
WIRE -112 128 -256 128
WIRE 208 128 -32 128
WIRE 288 128 208 128
WIRE 336 128 288 128
WIRE -256 160 -256 128
WIRE 208 160 208 128
WIRE -432 192 -432 128
WIRE -112 192 -160 192
WIRE 0 192 -32 192
WIRE -256 240 -256 224
WIRE 96 240 96 224
WIRE -432 336 -432 272
WIRE -256 336 -256 320
WIRE -256 336 -432 336
WIRE -160 336 -160 192
WIRE -160 336 -256 336
WIRE 0 336 0 192
WIRE 96 336 96 320
WIRE 208 336 208 304
FLAG 208 336 0
FLAG 0 336 0
FLAG 96 336 0
FLAG 288 128 OUT
FLAG -400 128 IN
SYMBOL voltage -432 176 R0
WINDOW 3 -202 195 Left 2
WINDOW 123 0 0 Left 0
WINDOW 39 0 0 Left 0
SYMATTR Value PULSE(0 24 1m 10p 10p 50m 100m)
SYMATTR InstName V1
SYMBOL EL-12M10ACMXX0 -128 176 M90
SYMATTR InstName U5
SYMBOL ECK+10U50VXX0 -272 160 R0
SYMATTR InstName U6
SYMBOL res -272 224 R0
SYMATTR InstName R2
SYMATTR Value 6.8
SYMBOL ECK+10U50VXX0 80 160 R0
SYMATTR InstName U7
SYMBOL res 80 224 R0
SYMATTR InstName R3
SYMATTR Value 6.8
SYMBOL res 192 208 R0
SYMATTR InstName R1
SYMATTR Value 2.2
SYMBOL ECE+47U35VXXM 192 160 R0
SYMATTR InstName U2
TEXT 224 200 Left 2 ;47u
TEXT -8 408 Left 2 !.tran 10m
TEXT 112 200 Left 2 ;10u
TEXT -240 208 Left 2 ;10u
